Version 4
SHEET 1 880 680
SYMBOL res 144 128 R0
SYMATTR InstName R1
