Version 4
SHEET 1 1336 680
WIRE 880 48 784 48
WIRE 1200 48 1088 48
WIRE 256 80 112 80
WIRE 416 80 336 80
WIRE 512 80 416 80
WIRE 1088 96 1088 48
WIRE 784 112 784 48
WIRE 112 128 112 80
WIRE 416 128 416 80
WIRE 512 128 512 80
WIRE 416 240 416 192
WIRE 512 240 512 208
WIRE 512 240 416 240
WIRE 784 240 784 192
WIRE 1088 240 1088 176
WIRE 112 256 112 208
WIRE 416 256 416 240
FLAG 416 256 0
FLAG 112 256 0
FLAG 112 80 IN
FLAG 512 80 OUT
FLAG 784 240 0
FLAG 1088 240 0
FLAG 880 48 VL
FLAG 1200 48 Isen
SYMBOL voltage 112 112 R0
WINDOW 3 -95 185 Left 2
WINDOW 123 0 0 Left 0
WINDOW 39 0 0 Left 0
SYMATTR InstName V1
SYMATTR Value PULSE(0 10 0 100n 100n 5u 10u)
SYMBOL ind 240 96 R270
WINDOW 0 32 56 VTop 2
WINDOW 3 5 56 VBottom 2
SYMATTR InstName L1
SYMATTR Value 20µ
SYMBOL res 496 112 R0
SYMATTR InstName R1
SYMATTR Value 1
SYMBOL cap 400 128 R0
SYMATTR InstName C1
SYMATTR Value 100µ
SYMBOL bv 784 96 R0
SYMATTR InstName B1
SYMATTR Value V=V(IN,OUT)
SYMBOL bv 1088 80 R0
SYMATTR InstName B2
SYMATTR Value V=i(L1)*Rsen
TEXT 16 320 Left 2 !.tran 1m
TEXT 1088 8 Left 2 !.param Rsen = 100m
