Version 4
SHEET 1 880 680
WIRE -48 0 -224 0
WIRE 160 0 32 0
WIRE -224 96 -224 0
WIRE 160 96 160 0
WIRE -224 208 -224 176
WIRE 160 208 160 160
FLAG -224 208 0
FLAG 160 208 0
FLAG -224 0 IN
FLAG 160 0 OUT
SYMBOL voltage -224 80 R0
WINDOW 3 -377 52 Left 2
WINDOW 123 0 0 Left 0
WINDOW 39 0 0 Left 0
SYMATTR InstName V1
SYMATTR Value PULSE(0 1 0 1u 1u 0.5m 1m)
SYMBOL res 48 -16 R90
WINDOW 0 0 56 VBottom 2
WINDOW 3 32 56 VTop 2
SYMATTR InstName R1
SYMATTR Value {Y}
SYMBOL cap 144 96 R0
SYMATTR InstName C1
SYMATTR Value {X}
TEXT -184 240 Left 2 !.tran 0 3m 1m
TEXT -184 264 Left 2 !.step param Y list 1k 10k
TEXT -184 288 Left 2 !.step param X list 0.1u 0.2u 0.3u
TEXT -184 312 Left 2 !.meas TRAN Vavg AVG V(OUT)
TEXT -184 336 Left 2 !.meas above0.5 FIND V(out) WHEN V(out)=0.5 TD=0 RISE=1
TEXT -184 368 Left 2 !.meas cross0.5x3 FIND V(out) WHEN V(out)=0.5 TD=0 CROSS=3
