Version 4
SHEET 1 880 680
WIRE 192 64 64 64
WIRE 384 64 272 64
WIRE 64 112 64 64
WIRE 384 112 384 64
WIRE 64 240 64 192
WIRE 384 240 384 176
FLAG 64 240 0
FLAG 384 240 0
FLAG 64 64 IN
FLAG 384 64 OUT
SYMBOL voltage 64 96 R0
WINDOW 3 -369 49 Left 2
WINDOW 123 0 0 Left 0
WINDOW 39 0 0 Left 0
SYMATTR InstName V1
SYMATTR Value PULSE(0 1 0 1u 1u 0.5m 1m)
SYMBOL res 288 48 R90
WINDOW 0 0 56 VBottom 2
WINDOW 3 32 56 VTop 2
SYMATTR InstName R1
SYMATTR Value {Y}
SYMBOL cap 368 112 R0
SYMATTR InstName C1
SYMATTR Value {X}
TEXT 112 272 Left 2 !.tran 0 3m 1ms
TEXT 112 296 Left 2 !.step param X list 0.1u 0.2u 0.3u
TEXT 112 320 Left 2 !.step param Y list 1k 10k
TEXT 112 352 Left 2 !.meas TRAN Vout_Deriv DERIV V(OUT) at 1.2ms
