Version 4
SHEET 1 880 680
WIRE 224 48 80 48
WIRE 352 48 304 48
WIRE 80 112 80 48
WIRE 352 128 352 48
WIRE 80 272 80 192
WIRE 208 272 80 272
WIRE 352 272 352 192
WIRE 352 272 208 272
WIRE 208 304 208 272
FLAG 208 304 0
FLAG 352 48 anode
SYMBOL voltage 80 96 R0
SYMATTR InstName V1
SYMATTR Value {X}
SYMBOL res 320 32 R90
WINDOW 0 0 56 VBottom 2
WINDOW 3 32 56 VTop 2
SYMATTR InstName R1
SYMATTR Value 1k
SYMBOL schottky 336 128 R0
SYMATTR InstName D1
SYMATTR Value 1N5817
SYMATTR Description Diode
SYMATTR Type diode
TEXT 88 384 Left 2 !.step param X 0 5 0.1
TEXT 88 408 Left 2 !.op
