Version 4
SHEET 1 880 680
WIRE 192 80 80 80
WIRE 400 80 272 80
WIRE 400 128 400 80
WIRE 80 144 80 80
WIRE 80 272 80 224
WIRE 400 272 400 192
FLAG 80 272 0
FLAG 400 272 0
FLAG 80 80 Vin
FLAG 400 80 Vout
SYMBOL voltage 80 128 R0
WINDOW 123 0 0 Left 0
WINDOW 39 0 0 Left 0
SYMATTR InstName V1
SYMATTR Value 10
SYMBOL res 288 64 R90
WINDOW 0 0 56 VBottom 2
WINDOW 3 32 56 VTop 2
SYMATTR InstName R1
SYMATTR Value {RES}
SYMBOL cap 384 128 R0
SYMATTR InstName C1
SYMATTR Value 10µ
TEXT 96 312 Left 2 !.tran 0.5s
TEXT 96 336 Left 2 !.ic V(Vout)=0
TEXT 96 368 Left 2 !.step param RES 1k 10k 1k
