Version 4
SHEET 1 880 680
WIRE 144 128 48 128
WIRE 320 128 224 128
WIRE 320 176 320 128
WIRE 48 192 48 128
WIRE 48 304 48 272
WIRE 320 304 320 240
FLAG 48 304 0
FLAG 320 304 0
FLAG 48 128 Vin
FLAG 320 128 Vout
SYMBOL res 240 112 R90
WINDOW 0 0 56 VBottom 2
WINDOW 3 32 56 VTop 2
SYMATTR InstName R1
SYMATTR Value {Y}
SYMBOL voltage 48 176 R0
WINDOW 3 -372 52 Left 2
WINDOW 123 0 0 Left 0
WINDOW 39 0 0 Left 0
SYMATTR InstName V1
SYMATTR Value PULSE(0 1 0 1u 1u 0.5m 1m)
SYMBOL cap 304 176 R0
SYMATTR InstName C1
SYMATTR Value {X}
TEXT 32 360 Left 2 !.tran 3m
TEXT 32 384 Left 2 !.step param X list 0.1u 0.47u 0.68u
TEXT 32 408 Left 2 !.step param Y list 1k 10k
