Version 4
SHEET 1 880 680
WIRE 0 48 -32 48
WIRE 128 48 0 48
WIRE 368 48 208 48
WIRE 480 48 368 48
WIRE 656 48 560 48
WIRE -32 96 -32 48
WIRE 368 96 368 48
WIRE 656 96 656 48
WIRE -32 240 -32 176
WIRE 368 240 368 160
WIRE 656 256 656 160
FLAG -32 240 0
FLAG 368 240 0
FLAG 656 256 0
FLAG 0 48 IN
FLAG 368 48 OUT
FLAG 656 48 OUT2
SYMBOL voltage -32 80 R0
WINDOW 123 0 0 Left 0
WINDOW 39 0 0 Left 0
SYMATTR InstName V1
SYMATTR Value PULSE(0 1 0 1u 1u 0.5m 1m)
SYMBOL res 224 32 R90
WINDOW 0 0 56 VBottom 2
WINDOW 3 32 56 VTop 2
SYMATTR InstName R1
SYMATTR Value {Y}
SYMBOL res 576 32 R90
WINDOW 0 0 56 VBottom 2
WINDOW 3 32 56 VTop 2
SYMATTR InstName R2
SYMATTR Value {Z}
SYMBOL cap 352 96 R0
SYMATTR InstName C1
SYMATTR Value {X}
SYMBOL cap 640 96 R0
SYMATTR InstName C2
SYMATTR Value 1µ
TEXT 8 256 Left 2 !.tran 50m
TEXT 8 288 Left 2 !.step param X list 0.1u 0.2u 0.3u
TEXT 8 320 Left 2 !.step param Y list 1k 10k
TEXT 8 352 Left 2 !.step param Z list 1k 10k
